3ERT.A
  MOE2016           3D
LIGANDS AND IONS
 59 61  0  0  0  0  0  0  0  0999 V2000
   30.5740    1.4650   29.5500 C   0  0  0  0  0  0  0  0  0  0  0  0
   30.0943    1.6767   30.5056 H   0  0  0  0  0  0  0  0  0  0  0  0
   29.9704    1.8771   28.7413 H   0  0  0  0  0  0  0  0  0  0  0  0
   31.5645    1.9196   29.5320 H   0  0  0  0  0  0  0  0  0  0  0  0
   30.7020   -0.0230   29.3720 C   0  0  0  0  0  0  0  0  0  0  0  0
   29.7067   -0.4666   29.3990 H   0  0  0  0  0  0  0  0  0  0  0  0
   31.3008   -0.4240   30.1897 H   0  0  0  0  0  0  0  0  0  0  0  0
   31.3630   -0.3880   28.0590 C   0  0  0  0  0  0  0  0  0  0  0  0
   32.7880    0.0530   27.9620 C   0  0  0  0  0  0  0  0  0  0  0  0
   33.2410    0.7820   26.8420 C   0  0  0  0  0  0  0  0  0  0  0  0
   32.5617    0.9911   26.0289 H   0  0  0  0  0  0  0  0  0  0  0  0
   34.5590    1.2350   26.7760 C   0  0  0  0  0  0  0  0  0  0  0  0
   34.8866    1.7936   25.9117 H   0  0  0  0  0  0  0  0  0  0  0  0
   35.4510    0.9800   27.7990 C   0  0  0  0  0  0  0  0  0  0  0  0
   36.4694    1.3341   27.7371 H   0  0  0  0  0  0  0  0  0  0  0  0
   35.0270    0.2700   28.8970 C   0  0  0  0  0  0  0  0  0  0  0  0
   35.7161    0.0646   29.7028 H   0  0  0  0  0  0  0  0  0  0  0  0
   33.7070   -0.1880   28.9760 C   0  0  0  0  0  0  0  0  0  0  0  0
   33.3944   -0.7433   29.8479 H   0  0  0  0  0  0  0  0  0  0  0  0
   30.7080   -1.0570   27.0650 C   0  0  0  0  0  0  0  0  0  0  0  0
   29.2100   -1.2330   27.0160 C   0  0  0  0  0  0  0  0  0  0  0  0
   28.6090   -2.4900   26.6950 C   0  0  0  0  0  0  0  0  0  0  0  0
   29.2345   -3.3529   26.5202 H   0  0  0  0  0  0  0  0  0  0  0  0
   27.2150   -2.6130   26.6050 C   0  0  0  0  0  0  0  0  0  0  0  0
   26.7650   -3.5643   26.3621 H   0  0  0  0  0  0  0  0  0  0  0  0
   26.4090   -1.4820   26.8350 C   0  0  0  0  0  0  0  0  0  0  0  0
   25.0580   -1.6220   26.7220 O   0  0  0  0  0  0  0  0  0  0  0  0
   24.7704   -2.2969   26.1028 H   0  0  0  0  0  0  0  0  0  0  0  0
   26.9920   -0.2350   27.1560 C   0  0  0  0  0  0  0  0  0  0  0  0
   26.3695    0.6292   27.3347 H   0  0  0  0  0  0  0  0  0  0  0  0
   28.3750   -0.1340   27.2390 C   0  0  0  0  0  0  0  0  0  0  0  0
   28.8177    0.8205   27.4827 H   0  0  0  0  0  0  0  0  0  0  0  0
   31.4110   -1.6900   25.9450 C   0  0  0  0  0  0  0  0  0  0  0  0
   32.5290   -2.4960   26.1460 C   0  0  0  0  0  0  0  0  0  0  0  0
   32.8934   -2.6378   27.1527 H   0  0  0  0  0  0  0  0  0  0  0  0
   33.1820   -3.1140   25.1170 C   0  0  0  0  0  0  0  0  0  0  0  0
   34.0472   -3.7299   25.3130 H   0  0  0  0  0  0  0  0  0  0  0  0
   32.7250   -2.9440   23.8200 C   0  0  0  0  0  0  0  0  0  0  0  0
   33.2960   -3.5540   22.7400 O   0  0  0  0  0  0  0  0  0  0  0  0
   32.9000   -3.1830   21.4230 C   0  0  0  0  0  0  0  0  0  0  0  0
   32.6790   -2.1164   21.3828 H   0  0  0  0  0  0  0  0  0  0  0  0
   32.0181   -3.7483   21.1218 H   0  0  0  0  0  0  0  0  0  0  0  0
   34.0590   -3.5080   20.5200 C   0  0  0  0  0  0  0  0  0  0  0  0
   34.9830   -3.2693   21.0466 H   0  0  0  0  0  0  0  0  0  0  0  0
   33.9813   -2.8911   19.6247 H   0  0  0  0  0  0  0  0  0  0  0  0
   34.1090   -4.8870   20.1180 N   0  3  0  0  0  0  0  0  0  0  0  0
   33.6720   -5.4318   20.8477 H   0  0  0  0  0  0  0  0  0  0  0  0
   33.3900   -5.1110   18.8630 C   0  0  0  0  0  0  0  0  0  0  0  0
   33.8547   -4.5267   18.0688 H   0  0  0  0  0  0  0  0  0  0  0  0
   32.3508   -4.8036   18.9798 H   0  0  0  0  0  0  0  0  0  0  0  0
   33.4291   -6.1695   18.6058 H   0  0  0  0  0  0  0  0  0  0  0  0
   35.5060   -5.2910   19.9220 C   0  0  0  0  0  0  0  0  0  0  0  0
   35.9510   -4.6878   19.1307 H   0  0  0  0  0  0  0  0  0  0  0  0
   35.5439   -6.3436   19.6414 H   0  0  0  0  0  0  0  0  0  0  0  0
   36.0608   -5.1417   20.8483 H   0  0  0  0  0  0  0  0  0  0  0  0
   31.6010   -2.1350   23.5790 C   0  0  0  0  0  0  0  0  0  0  0  0
   31.2407   -1.9937   22.5707 H   0  0  0  0  0  0  0  0  0  0  0  0
   30.9660   -1.5280   24.6260 C   0  0  0  0  0  0  0  0  0  0  0  0
   30.1019   -0.9096   24.4326 H   0  0  0  0  0  0  0  0  0  0  0  0
  1  2  1  0  0  0  0
  1  3  1  0  0  0  0
  1  4  1  0  0  0  0
  1  5  1  0  0  0  0
  5  6  1  0  0  0  0
  5  7  1  0  0  0  0
  5  8  1  0  0  0  0
  8  9  1  0  0  0  0
  8 20  2  0  0  0  0
  9 10  1  0  0  0  0
  9 18  2  0  0  0  0
 10 11  1  0  0  0  0
 10 12  2  0  0  0  0
 12 13  1  0  0  0  0
 12 14  1  0  0  0  0
 14 15  1  0  0  0  0
 14 16  2  0  0  0  0
 16 17  1  0  0  0  0
 16 18  1  0  0  0  0
 18 19  1  0  0  0  0
 20 21  1  0  0  0  0
 20 33  1  0  0  0  0
 21 22  1  0  0  0  0
 21 31  2  0  0  0  0
 22 23  1  0  0  0  0
 22 24  2  0  0  0  0
 24 25  1  0  0  0  0
 24 26  1  0  0  0  0
 26 27  1  0  0  0  0
 26 29  2  0  0  0  0
 27 28  1  0  0  0  0
 29 30  1  0  0  0  0
 29 31  1  0  0  0  0
 31 32  1  0  0  0  0
 33 34  1  0  0  0  0
 33 58  2  0  0  0  0
 34 35  1  0  0  0  0
 34 36  2  0  0  0  0
 36 37  1  0  0  0  0
 36 38  1  0  0  0  0
 38 39  1  0  0  0  0
 38 56  2  0  0  0  0
 39 40  1  0  0  0  0
 40 41  1  0  0  0  0
 40 42  1  0  0  0  0
 40 43  1  0  0  0  0
 43 44  1  0  0  0  0
 43 45  1  0  0  0  0
 43 46  1  0  0  0  0
 46 47  1  0  0  0  0
 46 48  1  0  0  0  0
 46 52  1  0  0  0  0
 48 49  1  0  0  0  0
 48 50  1  0  0  0  0
 48 51  1  0  0  0  0
 52 53  1  0  0  0  0
 52 54  1  0  0  0  0
 52 55  1  0  0  0  0
 56 57  1  0  0  0  0
 56 58  1  0  0  0  0
 58 59  1  0  0  0  0
M  CHG  1  46   1
M  END
$$$$
